Circuit: * D:\ESI Project\SPICE\hbridge.asc

Direct Newton iteration for .op point succeeded.

Date: Tue Oct 16 19:49:31 2012
Total elapsed time: 0.083 seconds.

tnom = 27
temp = 27
method = modified trap
totiter = 2132
traniter = 2082
tranpoints = 1042
accept = 1042
rejected = 0
matrix size = 30
fillins = 20
solver = Normal
Matrix Compiler1: 2.99 KB object code size  1.2/0.4/[0.3]
Matrix Compiler2: off  [0.3]/0.5/0.9


